### Calendar Parameters ---------------------------------------------------------  
#
 &CAL_NML
 TheCalendar = 'gregorian',
## "startDate_1" specifies the first day in simulation time.
 startDate_1 = 20120101,
## "startDate_2"?
 startDate_2 = 000000,
## What are calendar dumps?
 calendarDumps = .TRUE.,
 &
